ENTITY PSB834BV name_PSB8 journal
ENTITY OEGFDNZK name_OEGF journal
ENTITY K1SMFLZT name_K1SM paper
ENTITY F96R9DMZ name_F96R paper
ENTITY GGPA0C9Z name_GGPA conference
ENTITY MT3DK7J6 name_MT3D author
ENTITY E3PUMG4Y name_E3PU journal
ENTITY EN8C9W4Y name_EN8C author
ENTITY I4TA42PJ name_I4TA paper
ENTITY 3YK3V5WE name_3YK3 institution
RELATIONSHIP EN8C9W4Y presented_at 3YK3V5WE 3.6
RELATIONSHIP E3PUMG4Y authored_by PSB834BV 5.8
RELATIONSHIP PSB834BV presented_at EN8C9W4Y 3.8
RELATIONSHIP EN8C9W4Y cited_by K1SMFLZT 1.6
RELATIONSHIP F96R9DMZ collaborated_with E3PUMG4Y 1.1
RELATIONSHIP E3PUMG4Y published_in K1SMFLZT 6.9
RELATIONSHIP OEGFDNZK cited_by EN8C9W4Y 3.6
RELATIONSHIP OEGFDNZK affiliated_with 3YK3V5WE 7.2
RELATIONSHIP I4TA42PJ published_in EN8C9W4Y 5.9
RELATIONSHIP GGPA0C9Z collaborated_with 3YK3V5WE 4.7
RELATIONSHIP GGPA0C9Z presented_at EN8C9W4Y 6.0
RELATIONSHIP E3PUMG4Y cited_by I4TA42PJ 5.2
RELATIONSHIP I4TA42PJ affiliated_with PSB834BV 0.1
RELATIONSHIP I4TA42PJ presented_at GGPA0C9Z 2.6
RELATIONSHIP OEGFDNZK presented_at K1SMFLZT 5.8
PATH PSB834BV EN8C9W4Y
DELETE OEGFDNZK
PRINT PSB834BV
PATH PSB834BV 3YK3V5WE
PRINT F96R9DMZ
PATH E3PUMG4Y K1SMFLZT
PRINT E3PUMG4Y
DELETE 3YK3V5WE
PRINT F96R9DMZ
PRINT GGPA0C9Z
EXIT
