ENTITY DZTGPSSE name_DZTG journal
ENTITY 3IJ36WM9 name_3IJ3 institution
ENTITY 0KWQOZZY name_0KWQ journal
ENTITY J029VESA name_J029 author
ENTITY ZHM0F54D name_ZHM0 journal
ENTITY S85TU4WI name_S85T institution
ENTITY R34484WO name_R344 journal
ENTITY 9CI7GJI9 name_9CI7 paper
ENTITY 775U0TUG name_775U institution
ENTITY KFC85HBU name_KFC8 author
RELATIONSHIP DZTGPSSE affiliated_with R34484WO 9.8
RELATIONSHIP J029VESA collaborated_with 0KWQOZZY 5.6
RELATIONSHIP 775U0TUG collaborated_with 9CI7GJI9 5.8
RELATIONSHIP 9CI7GJI9 collaborated_with R34484WO 8.8
RELATIONSHIP DZTGPSSE collaborated_with 0KWQOZZY 9.4
RELATIONSHIP KFC85HBU collaborated_with ZHM0F54D 9.3
RELATIONSHIP 3IJ36WM9 affiliated_with 9CI7GJI9 9.7
RELATIONSHIP 3IJ36WM9 published_in ZHM0F54D 9.0
RELATIONSHIP 0KWQOZZY presented_at KFC85HBU 9.7
RELATIONSHIP 9CI7GJI9 published_in DZTGPSSE 7.2
RELATIONSHIP R34484WO cited_by KFC85HBU 4.8
RELATIONSHIP 775U0TUG affiliated_with 0KWQOZZY 2.1
RELATIONSHIP J029VESA presented_at 775U0TUG 3.1
RELATIONSHIP S85TU4WI cited_by 775U0TUG 3.9
RELATIONSHIP 3IJ36WM9 presented_at KFC85HBU 4.7
PATH R34484WO KFC85HBU
DELETE ZHM0F54D
HIGHEST
PATH 775U0TUG DZTGPSSE
PATH S85TU4WI R34484WO
DELETE R34484WO
PRINT 3IJ36WM9
HIGHEST
HIGHEST
HIGHEST
EXIT
