ENTITY UG65DO83 name_UG65 author
ENTITY 3L55XJ12 name_3L55 journal
ENTITY WNOLIBFJ name_WNOL institution
PRINT S,>&,R@W
DELETE :.M_S-ZX
PATH XU)5DL+2 3L55XJ12
EXIT
